/*--------------------------------*- C++ -*----------------------------------*\
| =========                 |                                                 |
| \\      /  F ield         | OpenFOAM: The Open Source CFD Toolbox           |
|  \\    /   O peration     | Version:  v2006                                 |
|   \\  /    A nd           | Website:  www.openfoam.com                      |
|    \\/     M anipulation  |                                                 |
\*---------------------------------------------------------------------------*/
FoamFile
{
    version     2.0;
    format      ascii;
    class       dictionary;
    location    "0/uniform";
    object      sixDoFRigidBodyMotionState;
}
// * * * * * * * * * * * * * * * * * * * * * * * * * * * * * * * * * * * * * //


centreOfRotation ( 1.0 0 0 );

orientation  	( 0.86603   0.00000  -0.50000  0.00000   1.00000   0.00000   0.50000   0.00000   0.86603);
velocity        ( 0 0 0 ); 

acceleration    ( 0 0 0 );

angularMomentum ( 0 0 0);

torque          ( 0 0 0 );


// ************************************************************************* //
